*$
* LM5175
*****************************************************************************
* (C) Copyright 2019 Texas Instruments Incorporated. All rights reserved.
*****************************************************************************
** This model is designed as an aid for customers of Texas Instruments.
** TI and its licensors and suppliers make no warranties, either expressed
** or implied, with respect to this model, including the warranties of
** merchantability or fitness for a particular purpose.  The model is
** provided solely on an "as is" basis.  The entire risk as to its quality
** and performance is with the customer
*****************************************************************************
*
* This model is subject to change without notice. Texas Instruments
* Incorporated is not responsible for updating this model.
*
*****************************************************************************
*
** Released by: WEBENCH Design Center, Texas Instruments Inc.
* Part: LM5175
* Date: 09SEP2019
* Model Type: TRANSIENT
* Simulator: PSPICE
* Simulator Version: 16.2.0.p001
* EVM Order Number: LM5175EVM
* EVM Users Guide: SNVU440A–March 2015–Revised June 2018
* Datasheet: SNVSA37A –OCTOBER 2015–REVISED MAY 2016
*
* Model Version: Final 1.10
* Topologies supported: Buck
*****************************************************************************
*
* Updates:
* Final 1.10
* Lib file got modified during Sim-integration and revalidation is done as per latest EVM
*
* Final 1.00
* Release to Web.
*
*****************************************************************************
*
* Model Usage Notes:
*
* 1. The following features have been modeled
*      a. Soft-start
*      b. UVLO,OVP
*      c. CCM,DCM MODE
*      d. Hiccup protection
* 2. Temperature effects are not modeled. 
* 3. Dithering and External Sync feature is not modeled.
*
*****************************************************************************
.SUBCKT LM5175_TRANS EN_UVLO VIN VISNS MODE DITH RT SLOPE SS COMP AGND FB VOSNS
+ ISNS_N ISNS_P CSG CS PGOOD SW2 HDRV2 BOOT2 LDRV2 PGND VCC BIAS LDRV1 BOOT1
+ HDRV1 SW1 PAD PARAMS: SS_1=0
R_pad PAD 0 1k
C_current_limit_C34         0 current_limit_N16760479  0.37u  TC=0,0 
E_current_limit_ABM55         current_limit_128_CYCLES 0 VALUE { 
+ {IF(V(current_limit_N16760479)>72.73m, 1, 0 )}    }
X_current_limit_S19    current_limit_N16760473 0 current_limit_N16760479 0
+  current_limit_mod1_current_limit_S19 
G_current_limit_ABMII2         0 current_limit_N16760479 VALUE { {IF
+  (V(current_limit_N16760513) >0.5, V(VFSW),0)}    }
X_current_limit_U2         COMP_GT_CL current_limit_N16759077
+  current_limit_N16759334 AND2_BASIC_GEN PARAMS: VDD=1 VSS=0 VTHRESH=500E-3
X_current_limit_U659         EN current_limit_N16764798 INV_BASIC_GEN PARAMS:
+  VDD=1 VSS=0 VTHRESH=500E-3
X_current_limit_U651         EN current_limit_SHDN INV_BASIC_GEN PARAMS: VDD=1
+  VSS=0 VTHRESH=500E-3
X_current_limit_U645         current_limit_N16759828 HIC_DIS current_limit_SHDN
+  current_limit_N16760513 NOR3_BASIC_GEN PARAMS: VDD=1 VSS=0 VTHRESH=500E-3
X_current_limit_U644         CURRENT_LIMIT current_limit_COUNT
+  current_limit_N16759828 NOR2_BASIC_GEN PARAMS: VDD=1 VSS=0 VTHRESH=500E-3
E_current_limit_ABM56         current_limit_3968_CYCLES 0 VALUE { 
+ {IF(V(current_limit_N16760479)>2.254, 1, 0 )}    }
X_current_limit_U6         MODE_OUT CL current_limit_N16759346 AND2_BASIC_GEN
+  PARAMS: VDD=1 VSS=0 VTHRESH=500E-3
E_current_limit_ABM57         current_limit_COUNT 0 VALUE { 
+ {IF(V(current_limit_128_CYCLES) > 0.5 & V(current_limit_N16764480)<0.5, 1, 0)} 
+    }
X_current_limit_U650         current_limit_N16760513 current_limit_N16760473
+  INV_BASIC_GEN PARAMS: VDD=1 VSS=0 VTHRESH=500E-3
V_current_limit_V1         current_limit_SET 0 1
X_current_limit_U643         CURRENT_LIMIT N16759612 CLK
+  current_limit_N16759550 EN current_limit_SET dffsbrb_nodelay PARAMS:  VDD=1
+  VSS=0 VTHRESH=0.5
X_current_limit_U3         MODE_OUT current_limit_N16759077 INV_BASIC_GEN
+  PARAMS: VDD=1 VSS=0 VTHRESH=500E-3
X_current_limit_U658         current_limit_N16759254 current_limit_N16764798
+  current_limit_N16759449 OR2_BASIC_GEN PARAMS: VDD=1 VSS=0 VTHRESH=500E-3
X_current_limit_U652         current_limit_ILIMIT_DETECT
+  current_limit_N16759449 current_limit_N16759550 N16759475 SRLATCHSHP_BASIC_GEN
+  PARAMS: VDD=1 VSS=0 VTHRESH=0.5
X_current_limit_U649         current_limit_SHDN TOFF DRV_DIS OR2_BASIC_GEN
+  PARAMS: VDD=1 VSS=0 VTHRESH=500E-3
X_current_limit_U648         current_limit_COUNT TOFF BUF_BASIC_GEN PARAMS:
+  VDD=1 VSS=0 VTHRESH=0.5
X_current_limit_U656         current_limit_3968_CYCLES current_limit_SHDN
+  current_limit_N16764480 OR2_BASIC_GEN PARAMS: VDD=1 VSS=0 VTHRESH=500E-3
X_current_limit_U827         CLKB current_limit_N16779506 INV_DELAY_BASIC_GEN
+  PARAMS: VDD=1 VSS=0 VTHRESH=0.5 DELAY=25N
X_current_limit_U4         current_limit_N16759334 current_limit_N16759346
+  current_limit_ILIMIT_DETECT OR2_BASIC_GEN PARAMS: VDD=1 VSS=0 VTHRESH=500E-3
X_current_limit_U828         CLKB current_limit_N16779506
+  current_limit_N16759254 AND2_BASIC_GEN PARAMS: VDD=1 VSS=0 VTHRESH=500E-3
X_Drivers_U1912603663         DRV_DIS Drivers_N16797699 INV_BASIC_GEN PARAMS:
+  VDD=1 VSS=0 VTHRESH=500E-3
R_Drivers_R46         LDRV1 0  200k  
X_Drivers_U1912603708         Drivers_UVLOB_BOOT2 Drivers_UVLO_BOOT2
+  INV_BASIC_GEN PARAMS: VDD=1 VSS=0 VTHRESH=500E-3
X_Drivers_S14    Drivers_N16759768 0 LDRV2 0 Buck_Boost_Driver_mod1_Drivers_S14
X_Drivers_U1912603680         Drivers_N16759768 Drivers_N16802471
+  INV_DELAY_BASIC_GEN PARAMS: VDD=1 VSS=0 VTHRESH=0.5 DELAY=50n
X_Drivers_U1912603652         Drivers_N16802471 Drivers_PRE_HDRV2
+  Drivers_N16758767 AND2_BASIC_GEN PARAMS: VDD=1 VSS=0 VTHRESH=500E-3
X_Drivers_S12    Drivers_N16787552 0 HDRV2 SW2
+  Buck_Boost_Driver_mod1_Drivers_S12 
C_Drivers_C183         0 Drivers_PRE_HDRV1  10p  
X_Drivers_U1912603679         Drivers_N16798765 Drivers_N16802369
+  INV_DELAY_BASIC_GEN PARAMS: VDD=1 VSS=0 VTHRESH=0.5 DELAY=50n
V_Drivers_V6         Drivers_N16816977 0 320m
X_Drivers_S3    Drivers_N16812942 0 BOOT1 HDRV1
+  Buck_Boost_Driver_mod1_Drivers_S3 
R_Drivers_R49         HDRV2 SW2  200k  
E_Drivers_E9         Drivers_N16805692 0 VCC 0 1
X_Drivers_U1912603705         BOOT1_SW1 Drivers_N16816435 Drivers_N16816675
+  Drivers_UVLOB_BOOT1 COMPHYS_BASIC_GEN PARAMS: VDD=1 VSS=0 VTHRESH=0.5
E_Drivers_E8         BOOT2_SW2 0 BOOT2 SW2 1
R_Drivers_Rgain11         Drivers_PRE_HDRV1 Drivers_N16798562  1k  
X_Drivers_U1912603674         Drivers_N16798623 Drivers_PRE_LDRV1
+  Drivers_N16798765 AND2_BASIC_GEN PARAMS: VDD=1 VSS=0 VTHRESH=500E-3
X_Drivers_S13    Drivers_N16759768 0 Drivers_N16808380 LDRV2
+  Buck_Boost_Driver_mod1_Drivers_S13 
X_Drivers_U1912603670         DRV_DIS Drivers_N16798615 INV_BASIC_GEN PARAMS:
+  VDD=1 VSS=0 VTHRESH=500E-3
X_Drivers_U1912603707         BOOT2_SW2 Drivers_N16807442 Drivers_N16816977
+  Drivers_UVLOB_BOOT2 COMPHYS_BASIC_GEN PARAMS: VDD=1 VSS=0 VTHRESH=0.5
X_Drivers_U1912603665         DRV_DIS Drivers_N16798534 INV_BASIC_GEN PARAMS:
+  VDD=1 VSS=0 VTHRESH=500E-3
X_Drivers_U1912603662         LS_ON Drivers_N16797699 Drivers_PRE_LDRV2
+  AND2_BASIC_GEN PARAMS: VDD=1 VSS=0 VTHRESH=500E-3
X_Drivers_U1912603667         Drivers_N16798534 HS_ON Drivers_N16798562
+  AND2_BASIC_GEN PARAMS: VDD=1 VSS=0 VTHRESH=500E-3
X_Drivers_U1912603672         Drivers_N16802369 Drivers_PRE_HDRV1
+  Drivers_N16798559 AND2_BASIC_GEN PARAMS: VDD=1 VSS=0 VTHRESH=500E-3
X_Drivers_U1912603660         LS_ON Drivers_N16797453 INV_BASIC_GEN PARAMS:
+  VDD=1 VSS=0 VTHRESH=500E-3
V_Drivers_V4         Drivers_N16816675 0 320m
X_Drivers_U1912603706         Drivers_UVLOB_BOOT1 Drivers_UVLO_BOOT1
+  INV_BASIC_GEN PARAMS: VDD=1 VSS=0 VTHRESH=500E-3
X_Drivers_S6    Drivers_N16775793 0 LDRV1 0 Buck_Boost_Driver_mod1_Drivers_S6 
X_Drivers_U1912603678         Drivers_N16798559 Drivers_N16798623
+  INV_DELAY_BASIC_GEN PARAMS: VDD=1 VSS=0 VTHRESH=0.5 DELAY=50n
X_Drivers_S4    Drivers_N16812942 0 HDRV1 SW1 Buck_Boost_Driver_mod1_Drivers_S4
X_Drivers_U1912603709         Drivers_UVLOB_BOOT1 Drivers_N16798559
+  Drivers_N16812942 AND2_BASIC_GEN PARAMS: VDD=1 VSS=0 VTHRESH=500E-3
X_Drivers_U1912603669         Drivers_N16799006 Drivers_N16798615
+  Drivers_PRE_LDRV1 AND2_BASIC_GEN PARAMS: VDD=1 VSS=0 VTHRESH=500E-3
X_Drivers_U1912603659         DRV_DIS Drivers_N16797448 INV_BASIC_GEN PARAMS:
+  VDD=1 VSS=0 VTHRESH=500E-3
X_Drivers_U1912603675         HS_ON Drivers_N16799006 INV_BASIC_GEN PARAMS:
+  VDD=1 VSS=0 VTHRESH=500E-3
X_Drivers_S5    Drivers_N16775793 0 Drivers_N16805692 LDRV1
+  Buck_Boost_Driver_mod1_Drivers_S5 
R_Drivers_Rgain8         Drivers_PRE_HDRV2 Drivers_N16797604  1k  
E_Drivers_E10         Drivers_N16808380 0 VCC 0 1
R_Drivers_R50         LDRV2 0  200k  
V_Drivers_V3         Drivers_N16816435 0 2.86
X_Drivers_U1912603677         Drivers_N16798765 LS_OFF Drivers_N16775793
+  AND2_BASIC_GEN PARAMS: VDD=1 VSS=0 VTHRESH=500E-3
V_Drivers_V5         Drivers_N16807442 0 2.86
X_Drivers_U1912603713         Drivers_UVLOB_BOOT2 Drivers_N16758767 HS_OFF
+  Drivers_N16787552 AND3_BASIC_GEN PARAMS: VDD=1 VSS=0 VTHRESH=500E-3
X_Drivers_U1912603661         Drivers_N16797448 Drivers_N16797453
+  Drivers_N16797604 AND2_BASIC_GEN PARAMS: VDD=1 VSS=0 VTHRESH=500E-3
C_Drivers_C180         0 Drivers_PRE_HDRV2  10p  
X_Drivers_U1912603681         Drivers_N16758767 Drivers_N16804514
+  INV_DELAY_BASIC_GEN PARAMS: VDD=1 VSS=0 VTHRESH=0.5 DELAY=50n
X_Drivers_U1912603654         Drivers_N16804514 Drivers_PRE_LDRV2
+  Drivers_N16759768 AND2_BASIC_GEN PARAMS: VDD=1 VSS=0 VTHRESH=500E-3
R_Drivers_R45         HDRV1 SW1  200k  
E_Drivers_E7         BOOT1_SW1 0 BOOT1 SW1 1
X_Drivers_S11    Drivers_N16787552 0 BOOT2 HDRV2
+  Buck_Boost_Driver_mod1_Drivers_S11 
X_CS_AMP_U9         CS_AMP_PWM_RESET_MASK PWM_COMPARATOR_OUTB CS_AMP_PWM_PATH
+  NOR2_BASIC_GEN PARAMS: VDD=1 VSS=0 VTHRESH=500E-3
X_CS_AMP_U686         CS_AMP_N16795824 CS_AMP_N16795838 MIN_TIMER_IN
+  AND2_BASIC_GEN PARAMS: VDD=1 VSS=0 VTHRESH=500E-3
X_CS_AMP_U704         CS_AMP_N16764328 CS_AMP_N16764308 CS_AMP_N16841653 RESET
+  OR3_BASIC_GEN PARAMS: VDD=1 VSS=0 VTHRESH=500E-3
X_CS_AMP_U643         N16848312 CS_AMP_N16848292 CLKB CS_AMP_SET EN CS_AMP_SET
+  dffsbrb_nodelay PARAMS:  VDD=1 VSS=0 VTHRESH=0.5
R_CS_AMP_R1         CS_AMP_N16838708 CL  25 TC=0,0 
X_CS_AMP_U1912603727         CS_AMP_N16907333 UVLO_BT1_DETECTED HS_ON
+  NOR2_BASIC_GEN PARAMS: VDD=1 VSS=0 VTHRESH=500E-3
X_CS_AMP_U688         LDRV2 CS_AMP_LD2_STATUS INV_BASIC_GEN PARAMS: VDD=1 VSS=0
+  VTHRESH=500E-3
X_CS_AMP_U1912603728         CS_AMP_N17091334 CS_AMP_N17091330 CS_AMP_OUT75NS
+  OR2_BASIC_GEN PARAMS: VDD=1 VSS=0 VTHRESH=500E-3
V_CS_AMP_V91         CS_AMP_N16807118 0 4.61
E_CS_AMP_E3         CS_AMP_N5085126 0 CS CSG 5
X_CS_AMP_U721         SCP OVP CS_AMP_N16842045 OR2_BASIC_GEN PARAMS: VDD=1
+  VSS=0 VTHRESH=500E-3
X_CS_AMP_U1912603730         MODE_IN MODE_OUT CS_AMP_N17230591 XNOR2_BASIC_GEN
+  PARAMS: VDD=1 VSS=0 VTHRESH=500E-3
X_CS_AMP_U687         CS_AMP_N16796221 CS_AMP_MODE_OUTB CS_AMP_N16795824
+  OR2_BASIC_GEN PARAMS: VDD=1 VSS=0 VTHRESH=500E-3
E_CS_AMP_E7         CS_AMP_N5085050 0 CS CSG -5
X_CS_AMP_U727         CS_AMP_N16817017 CS_AMP_N16846627 CS_AMP_N16848292 PWM
+  OR3_BASIC_GEN PARAMS: VDD=1 VSS=0 VTHRESH=500E-3
V_CS_AMP_V90         CS_AMP_N16848137 0 40m
X_CS_AMP_U1912603731         CLK CS_AMP_N17230591 CS_AMP_N16817017
+  AND2_BASIC_GEN PARAMS: VDD=1 VSS=0 VTHRESH=500E-3
X_CS_AMP_U732         CURRENT_LIMIT CS_AMP_CURRENT_LIMITB INV_BASIC_GEN PARAMS:
+  VDD=1 VSS=0 VTHRESH=500E-3
E_CS_AMP_ABM4         CS_AMP_CLV 0 VALUE { {IF(V(COMP)>2, 0, 1)}    }
X_CS_AMP_U706         CS_AMP_N16832433 CS_AMP_N16832428 CS_AMP_N167757052
+  AND2_BASIC_GEN PARAMS: VDD=1 VSS=0 VTHRESH=500E-3
X_CS_AMP_U1         CS_AMP_5XVCS CS_AMP_VCOMP_SL CS_AMP_N16779166
+  COMP_BASIC_GEN PARAMS: VDD=1 VSS=0 VTHRESH=0.5
V_CS_AMP_V70         COMP CS_AMP_N16754025 1.7
V_CS_AMP_V92         CS_AMP_N16807151 0 0.5
X_CS_AMP_U682         CS_AMP_N17113541 CS_AMP_N17113525 CS_AMP_OUT100NS
+  OR2_BASIC_GEN PARAMS: VDD=1 VSS=0 VTHRESH=500E-3
X_CS_AMP_U722         CS_AMP_N16842045 CS_AMP_MODE_OUTB CS_AMP_N16842121
+  AND2_BASIC_GEN PARAMS: VDD=1 VSS=0 VTHRESH=500E-3
X_CS_AMP_U695         CS_AMP_N16796719 CS_AMP_OUT150NS CS_AMP_PWM_RESET_MASK
+  OR2_BASIC_GEN PARAMS: VDD=1 VSS=0 VTHRESH=500E-3
X_CS_AMP_U724         PWM MODE_OUT CS_AMP_N16907823 AND2_BASIC_GEN PARAMS:
+  VDD=1 VSS=0 VTHRESH=500E-3
X_CS_AMP_U824         MIN_TIMER_INB CS_AMP_N17104136 INV_DELAY_BASIC_GEN
+  PARAMS: VDD=1 VSS=0 VTHRESH=0.5 DELAY=10n
X_CS_AMP_U1912603708         CS_AMP_UVLOB_BOOT2 CS_AMP_UVLO_BOOT2 INV_BASIC_GEN
+  PARAMS: VDD=1 VSS=0 VTHRESH=500E-3
X_CS_AMP_U1912603712         CS_AMP_N16907073 N16907082 CLK CS_AMP_UVLO_BOOT1
+  CS_AMP_EN_UVLO_REFRESH_BUCK CS_AMP_SET dffsbrb_nodelay PARAMS:  VDD=1 VSS=0
+  VTHRESH=0.5
X_CS_AMP_U1912603723         CS_AMP_N16907823 CS_AMP_UVLO_BT2_DETECTED LS_ON
+  OR2_BASIC_GEN PARAMS: VDD=1 VSS=0 VTHRESH=500E-3
X_CS_AMP_U734         CS_AMP_N16905880 CS_AMP_EN_UVLO_REFRESH_BOOST
+  INV_BASIC_GEN PARAMS: VDD=1 VSS=0 VTHRESH=500E-3
X_CS_AMP_S14    MODE_OUT 0 CS_AMP_N5085050 CS_AMP_5XVCS CS_AMP_mod1_CS_AMP_S14 
X_CS_AMP_U822         CLKB CS_AMP_N17091373 INV_DELAY_BASIC_GEN PARAMS: VDD=1
+  VSS=0 VTHRESH=0.5 DELAY=10n
X_CS_AMP_U728         VCS CS_AMP_N16848137 CS_AMP_N17212668 COMP_BASIC_GEN
+  PARAMS: VDD=1 VSS=0 VTHRESH=0.5
X_CS_AMP_U691         CS_AMP_N16795996 CS_AMP_OUT100NS CS_AMP_N16796221
+  OR2_BASIC_GEN PARAMS: VDD=1 VSS=0 VTHRESH=500E-3
X_CS_AMP_U1912603714         CS_AMP_OUT75NS CLK CS_AMP_N16791086 OR2_BASIC_GEN
+  PARAMS: VDD=1 VSS=0 VTHRESH=500E-3
X_CS_AMP_U694         MIN_TIMER_IN MIN_TIMER_INB INV_BASIC_GEN PARAMS: VDD=1
+  VSS=0 VTHRESH=500E-3
X_CS_AMP_U1912603724         CS_AMP_NEG_CURRENT_LIMIT CS_AMP_MODE_OUTB
+  CS_AMP_N16832433 NAND2_BASIC_GEN PARAMS: VDD=1 VSS=0 VTHRESH=500E-3
X_CS_AMP_U719         CS_AMP_N16841955 CS_AMP_MODE_OUTB CS_AMP_N16907333
+  AND2_BASIC_GEN PARAMS: VDD=1 VSS=0 VTHRESH=500E-3
X_CS_AMP_U825         CS_AMP_N17104136 MIN_TIMER_INB CS_AMP_N17104097
+  AND2_BASIC_GEN PARAMS: VDD=1 VSS=0 VTHRESH=500E-3
X_CS_AMP_U697         CS_AMP_LD2_STATUS CS_AMP_N16795996 BUF_DELAY_BASIC_GEN
+  PARAMS: VDD=1 VSS=0 VTHRESH=0.5 DELAY=5n
X_CS_AMP_U1912603705         BOOT1_SW1 CS_AMP_N16807016 CS_AMP_N16807049
+  CS_AMP_UVLOB_BOOT1 COMPHYS_BASIC_GEN PARAMS: VDD=1 VSS=0 VTHRESH=0.5
X_CS_AMP_U823         CS_AMP_N17091373 CLKB CS_AMP_N17091334 AND2_BASIC_GEN
+  PARAMS: VDD=1 VSS=0 VTHRESH=500E-3
E_CS_AMP_ABM1         CS_AMP_VCOMP_SL 0 VALUE { {IF(V(MODE_OUT)<0.5,
+  V(CS_AMP_N16754025)+V(SLOPE), V(CS_AMP_N16754025)-V(SLOPE))}    }
C_CS_AMP_C173         0 CS_AMP_N17104093  1n  
C_CS_AMP_C172         0 CS_AMP_N17091330  1n  
X_CS_AMP_U731         CS_AMP_N16795696 CLK N16796502 CS_AMP_LD1_STATUSB_OR_ZCDB
+  SRLATCHSHP_BASIC_GEN PARAMS: VDD=1 VSS=0 VTHRESH=0.5
X_CS_AMP_U1912603713         CS_AMP_N16791086 CS_AMP_N16907073
+  UVLO_BT1_DETECTED AND2_BASIC_GEN PARAMS: VDD=1 VSS=0 VTHRESH=500E-3
X_CS_AMP_U726         CS_AMP_CLV COMP_GT_CL INV_BASIC_GEN PARAMS: VDD=1 VSS=0
+  VTHRESH=500E-3
X_CS_AMP_U829         LDRV2 CS_AMP_N17113580 INV_DELAY_BASIC_GEN PARAMS: VDD=1
+  VSS=0 VTHRESH=0.5 DELAY=10n
X_CS_AMP_U718         PWM CS_AMP_N16841836 CS_AMP_N16841955 OR2_BASIC_GEN
+  PARAMS: VDD=1 VSS=0 VTHRESH=500E-3
X_CS_AMP_U717         CS_AMP_N16842121 PWM CS_AMP_N16841836 N16842139
+  SRLATCHSHP_BASIC_GEN PARAMS: VDD=1 VSS=0 VTHRESH=0.5
X_CS_AMP_U715         MODE_OUT OVP CS_AMP_N16841614 AND2_BASIC_GEN PARAMS:
+  VDD=1 VSS=0 VTHRESH=500E-3
E_CS_AMP_E15         VCS 0 CS CSG 1
E_CS_AMP_ABM2         CS_AMP_VCL_SL 0 VALUE { {IF(V(MODE_OUT)<0.5,
+  IF(V(SLOPE)-V(VSLPK)<-0.4,V(SLOPE)-V(VSLPK),V(SLOPE)-V(VSLPK)+ 0.4),
+  V(CS_AMP_CL_LIMIT)-V(SLOPE)+V(VSLPK))}    }
X_CS_AMP_U830         CS_AMP_N17113580 LDRV2 CS_AMP_N17113541 AND2_BASIC_GEN
+  PARAMS: VDD=1 VSS=0 VTHRESH=500E-3
X_CS_AMP_U735         CS_AMP_MODE_OUTB CS_AMP_CURRENT_LIMITB CS_AMP_N16905945
+  OR2_BASIC_GEN PARAMS: VDD=1 VSS=0 VTHRESH=500E-3
X_CS_AMP_U698         CS_AMP_N17104097 CS_AMP_N17104093 CS_AMP_OUT150NS
+  OR2_BASIC_GEN PARAMS: VDD=1 VSS=0 VTHRESH=500E-3
X_CS_AMP_U670         CLK_RESET_B CS_AMP_PWM_PATH CS_AMP_N16764308
+  AND2_BASIC_GEN PARAMS: VDD=1 VSS=0 VTHRESH=500E-3
X_CS_AMP_U739         MODE_OUT CS_AMP_MODE_OUTB INV_BASIC_GEN PARAMS: VDD=1
+  VSS=0 VTHRESH=500E-3
E_CS_AMP_ABM3         CS_AMP_N16774427 0 VALUE { {IF(V(CS_AMP_VCOMP_SL)<0 &
+  V(SS) < 0.8 , 1, V(CS_AMP_N16829651))}    }
X_CS_AMP_S15    MODE_OUT 0 CS_AMP_N5085126 CS_AMP_5XVCS CS_AMP_mod1_CS_AMP_S15 
X_CS_AMP_U733         EN CS_AMP_CURRENT_LIMITB CS_AMP_N16905880 NAND2_BASIC_GEN
+  PARAMS: VDD=1 VSS=0 VTHRESH=500E-3
V_CS_AMP_V3         CS_AMP_N16807016 0 4.61
D_CS_AMP_D11         CS_AMP_N17104097 CS_AMP_N17104093 D_D111 
X_CS_AMP_U2         CS_AMP_5XVCS CS_AMP_VCL_SL CS_AMP_N16838708 COMP_BASIC_GEN
+  PARAMS: VDD=1 VSS=0 VTHRESH=0.5
X_CS_AMP_U696         MIN_TIMER_IN CS_AMP_N16796719 BUF_DELAY_BASIC_GEN PARAMS:
+  VDD=1 VSS=0 VTHRESH=0.5 DELAY=5n
C_CS_AMP_C174         0 CS_AMP_N17113525  1n  
D_CS_AMP_D10         CS_AMP_N17091334 CS_AMP_N17091330 D_D111 
X_CS_AMP_U1912603719         CS_AMP_N16907587 N16907593 CLK CS_AMP_UVLO_BOOT2
+  CS_AMP_EN_UVLO_REFRESH_BOOST CS_AMP_SET dffsbrb_nodelay PARAMS:  VDD=1 VSS=0
+  VTHRESH=0.5
X_CS_AMP_U672         CLK_RESET MODE_OUT CS_AMP_N16764328 AND2_BASIC_GEN
+  PARAMS: VDD=1 VSS=0 VTHRESH=500E-3
X_CS_AMP_U679         CS_AMP_N16817017 RESET CS_AMP_N16846627 N16282299
+  SRLATCHSHP_BASIC_GEN PARAMS: VDD=1 VSS=0 VTHRESH=0.5
V_CS_AMP_V86         CS_AMP_SET 0 1
X_min_timer_U829         min_timer_LDRVXLTBB_TRAN min_timer_N16696802
+  BUCK_BOOST_MODE N16841958 srlatchrhp_basic_gen PARAMS: VDD=1 VSS=0 VTHRESH=0.5
X_CS_AMP_U730         EN CS_AMP_ENB INV_BASIC_GEN PARAMS: VDD=1 VSS=0
+  VTHRESH=500E-3
R_CS_AMP_R3         CS_AMP_N17104097 CS_AMP_N17104093  206.35 TC=0,0 
X_CS_AMP_U703         MODE_OUT CS_AMP_CLV CS_AMP_N16829821 OR2_BASIC_GEN
+  PARAMS: VDD=1 VSS=0 VTHRESH=500E-3
R_CS_AMP_R2         CS_AMP_N17091334 CS_AMP_N17091330  99.567 TC=0,0 
X_CS_AMP_U674         MODE_OUT CS_AMP_N167757052 PWM_COMPARATOR_OUT
+  XNOR2_BASIC_GEN PARAMS: VDD=1 VSS=0 VTHRESH=500E-3
X_CS_AMP_U685         CS_AMP_LD1_STATUSB_OR_ZCDB MODE_OUT CS_AMP_N16795838
+  OR2_BASIC_GEN PARAMS: VDD=1 VSS=0 VTHRESH=500E-3
R_CS_AMP_R6         CS_AMP_N17212668 CS_AMP_NEG_CURRENT_LIMIT  25 TC=0,0 
V_CS_AMP_V4         CS_AMP_N16807049 0 0.5
E_CS_AMP_ABM5         CS_AMP_CL_LIMIT 0 VALUE { {IF(V(BUCK_BOOST_MODE)>0.5,
+  0.4, 0.8)}    }
X_CS_AMP_U1912603726         LDRV1 CS_AMP_N16795582 BUF_BASIC_GEN PARAMS: VDD=1
+  VSS=0 VTHRESH=0.5
X_CS_AMP_U8         PWM_COMPARATOR_OUT PWM_COMPARATOR_OUTB INV_BASIC_GEN
+  PARAMS: VDD=1 VSS=0 VTHRESH=500E-3
C_CS_AMP_C175         0 CS_AMP_NEG_CURRENT_LIMIT  1n  TC=0,0 
X_CS_AMP_U681         ZCD_BUCK_SIGNAL CS_AMP_N16795582 CS_AMP_N16795696
+  OR2_BASIC_GEN PARAMS: VDD=1 VSS=0 VTHRESH=500E-3
D_CS_AMP_D12         CS_AMP_N17113541 CS_AMP_N17113525 D_D111 
X_CS_AMP_U1912603706         CS_AMP_UVLOB_BOOT1 CS_AMP_UVLO_BOOT1 INV_BASIC_GEN
+  PARAMS: VDD=1 VSS=0 VTHRESH=500E-3
X_CS_AMP_U736         EN CS_AMP_N16905945 CS_AMP_N16906034 NAND2_BASIC_GEN
+  PARAMS: VDD=1 VSS=0 VTHRESH=500E-3
X_CS_AMP_U709         CL CS_AMP_N16774427 CS_AMP_N16832428 OR2_BASIC_GEN
+  PARAMS: VDD=1 VSS=0 VTHRESH=500E-3
R_CS_AMP_R4         CS_AMP_N17113541 CS_AMP_N17113525  134.2 TC=0,0 
X_CS_AMP_U1912603707         BOOT2_SW2 CS_AMP_N16807118 CS_AMP_N16807151
+  CS_AMP_UVLOB_BOOT2 COMPHYS_BASIC_GEN PARAMS: VDD=1 VSS=0 VTHRESH=0.5
X_CS_AMP_U714         CS_AMP_N16841607 CS_AMP_N16841614 CS_AMP_N16841653
+  AND2_BASIC_GEN PARAMS: VDD=1 VSS=0 VTHRESH=500E-3
C_CS_AMP_C1         0 CL  1n  TC=0,0 
X_CS_AMP_U738         CS_AMP_N16906034 CS_AMP_EN_UVLO_REFRESH_BUCK
+  INV_BASIC_GEN PARAMS: VDD=1 VSS=0 VTHRESH=500E-3
X_CS_AMP_U1912603725         ZCD_BB CS_AMP_N16791086 CS_AMP_N16907587
+  CS_AMP_UVLO_BT2_DETECTED AND3_BASIC_GEN PARAMS: VDD=1 VSS=0 VTHRESH=500E-3
X_CS_AMP_U713         CS_AMP_PWM_RESET_MASK CS_AMP_N16841607 INV_BASIC_GEN
+  PARAMS: VDD=1 VSS=0 VTHRESH=500E-3
X_CS_AMP_U702         CS_AMP_N16779166 CS_AMP_N16829821 CS_AMP_N16829651
+  AND2_BASIC_GEN PARAMS: VDD=1 VSS=0 VTHRESH=500E-3
G_VCC_REG_ABMI4         VCC_REG_N16764709 EN_UVLO VALUE { {IF(V(EN_UVLO)<0.7,0,
+  IF(V(EN_UVLO)<1.22,1.5u,4.5u))}    }
V_VCC_REG_V82         VCC_REG_N16764761 0 3.3
X_VCC_REG_U613         BIAS VCC_REG_N16765253 VCC_REG_N16765297 COMP_BASIC_GEN
+  PARAMS: VDD=1 VSS=0 VTHRESH=0.5
D_VCC_REG_D10         EN_UVLO VCC_REG_N16764709 D_D11 
X_VCC_REG_U606         EN_UVLO VCC_REG_N16765003 VCC_REG_N16765009
+  COMP_BASIC_GEN PARAMS: VDD=1 VSS=0 VTHRESH=0.5
V_VCC_REG_V85         VCC_REG_N16765253 0 8
X_VCC_REG_U6         VCC_REG_N16764767 VCC_REG_N16764827 VCC_REG_STBY
+  AND2_BASIC_GEN PARAMS: VDD=1 VSS=0 VTHRESH=500E-3
X_VCC_REG_U607         VCC_REG_N16764767 VCC_REG_N16765121 INV_BASIC_GEN
+  PARAMS: VDD=1 VSS=0 VTHRESH=500E-3
X_VCC_REG_U604         SDWN VCC_REG_N16764827 INV_BASIC_GEN PARAMS: VDD=1 VSS=0
+  VTHRESH=500E-3
V_VCC_REG_V84         VCC_REG_N16765003 0 1.22
C_VCC_REG_C14         0 EN  1n  
X_VCC_REG_U605         VCC_REG_N16764877 EN_UVLO SDWN COMP_BASIC_GEN PARAMS:
+  VDD=1 VSS=0 VTHRESH=0.5
X_VCC_REG_U608         VCC_REG_N16765009 VCC_REG_N16765121 VCC_REG_N16765307
+  AND2_BASIC_GEN PARAMS: VDD=1 VSS=0 VTHRESH=500E-3
R_VCC_REG_R14         VCC_REG_N16765307 EN  1  
E_VCC_REG_ABM168         VCC 0 VALUE { LIMIT(IF(V(EN_UVLO)>0.7
+  ,V(VCC_REG_N16764625),0),0,7.5)    }
V_VCC_REG_V83         VCC_REG_N16764877 0 0.7
V_VCC_REG_V45         VCC_REG_N16764709 0 3.3
X_VCC_REG_U611         VIN BIAS VCC_REG_N16765297 VCC_REG_N16764625
+  MUX2_BASIC_GEN PARAMS: VDD=1 VSS=0 VTHRESH=0.5
X_VCC_REG_U612         VCC_REG_N16764761 VCC VCC_REG_N16764767 COMP_BASIC_GEN
+  PARAMS: VDD=1 VSS=0 VTHRESH=0.5
V_OSC_V47         OSC_N16739835 0 5
R_OSC_R276         0 OSC_N16738540  500MEG  
D_OSC_D11         OSC_N16673143 OSC_N16673585 D_D11 
R_OSC_R278         VFSW 0  1  
R_OSC_R277         OSC_N16738540 RT  1  
X_OSC_U136         CLK_RESET_B CLK one_shot PARAMS:  T=50
X_OSC_U134         OSC_N16673551 OSC_N16673361 OSC_N16673275 OR2_BASIC_GEN
+  PARAMS: VDD=1 VSS=0 VTHRESH=500E-3
X_OSC_U133         CLK_RESET OSC_N16673175 INV_DELAY_BASIC_GEN PARAMS: VDD=1
+  VSS=0 VTHRESH=0.5 DELAY=75n
X_OSC_U135         EN OSC_N16673551 INV_BASIC_GEN PARAMS: VDD=1 VSS=0
+  VTHRESH=500E-3
X_OSC_S26    OSC_N16673275 0 OSC_N16673143 0 OSC_OSC_S26 
X_OSC_U137         CLK_RESET CLK_RESET_B INV_BASIC_GEN PARAMS: VDD=1 VSS=0
+  VTHRESH=500E-3
X_OSC_U131         OSC_N16673143 OSC_N16673513 CLK_RESET COMP_BASIC_GEN PARAMS:
+  VDD=1 VSS=0 VTHRESH=0.5
G_OSC_ABMI3         OSC_N16673585 OSC_N16673143 VALUE { {-( I(V_OSC_V47)) }   
+  }
C_OSC_C79         OSC_N16673143 0  37p  
V_OSC_V45         OSC_N16673585 0 10
X_OSC_U132         OSC_N16673175 OSC_N16673361 INV_DELAY_BASIC_GEN PARAMS:
+  VDD=1 VSS=0 VTHRESH=0.5 DELAY=75n
X_OSC_H1    OSC_N16738540 OSC_N16739835 VFSW 0 OSC_OSC_H1 
V_OSC_V46         OSC_N16673513 0 5
V_V73         SCP AGND 0
X_min_timer_U689         min_timer_N16741309 min_timer_ENB
+  min_timer_LDRVXGT1P2US min_timer_N16696802 OR3_BASIC_GEN PARAMS: VDD=1 VSS=0
+  VTHRESH=500E-3
C_min_timer_C172         0 min_timer_N16808041  1n  
X_min_timer_U693         OVP min_timer_N16744010 INV_BASIC_GEN PARAMS: VDD=1
+  VSS=0 VTHRESH=500E-3
X_min_timer_U656         min_timer_LDRVXGT1P2US N16703921
+  min_timer_PULSE_GT_1P2US min_timer_SET min_timer_RES min_timer_SET
+  dffsbrb_nodelay PARAMS:  VDD=1 VSS=0 VTHRESH=0.5
X_min_timer_U655         min_timer_N16666348 min_timer_OUTPUT1P2US
+  min_timer_PULSE_GT_1P2US AND2_BASIC_GEN PARAMS: VDD=1 VSS=0 VTHRESH=500E-3
X_min_timer_U643         min_timer_LDRVXLTBB_TRAN N16695899
+  min_timer_PULSELTBB_TRAN min_timer_SET min_timer_RES min_timer_SET
+  dffsbrb_nodelay PARAMS:  VDD=1 VSS=0 VTHRESH=0.5
X_min_timer_U1912603729         MODE_OUT N16830305 CLK MODE_IN EN min_timer_SET
+  dffsbrb_nodelay PARAMS:  VDD=1 VSS=0 VTHRESH=0.5
D_min_timer_D10         min_timer_N16808035 min_timer_N16808041 D_D111 
X_min_timer_U691         BUCK_BOOST_MODE min_timer_N16741475 INV_BASIC_GEN
+  PARAMS: VDD=1 VSS=0 VTHRESH=500E-3
X_min_timer_U827         CLK_RESET min_timer_N16820676 INV_DELAY_BASIC_GEN
+  PARAMS: VDD=1 VSS=0 VTHRESH=0.5 DELAY=10n
X_min_timer_U651         min_timer_ENB min_timer_CLK_RESET_PULSE min_timer_RES
+  NOR2_BASIC_GEN PARAMS: VDD=1 VSS=0 VTHRESH=500E-3
X_min_timer_U685         min_timer_INPUT1P2US min_timer_N16666348
+  BUF_DELAY_BASIC_GEN PARAMS: VDD=1 VSS=0 VTHRESH=0.5 DELAY=15n
X_min_timer_U645         EN min_timer_ENB INV_BASIC_GEN PARAMS: VDD=1 VSS=0
+  VTHRESH=500E-3
X_min_timer_U828         CLK_RESET min_timer_N16820676
+  min_timer_CLK_RESET_PULSE AND2_BASIC_GEN PARAMS: VDD=1 VSS=0 VTHRESH=500E-3
X_min_timer_U690         min_timer_N16741475 MODE_STATE min_timer_N16741309
+  AND2_BASIC_GEN PARAMS: VDD=1 VSS=0 VTHRESH=500E-3
V_min_timer_V86         min_timer_SET 0 1
X_min_timer_U650         min_timer_INPUT1P2US N16696742 MIN_TIMER_INB
+  min_timer_SET min_timer_N16696309 min_timer_SET dffsbrb_nodelay PARAMS:  VDD=1
+  VSS=0 VTHRESH=0.5
X_min_timer_min_on_U822         MIN_TIMER_INB min_timer_min_on_N16772328
+  INV_DELAY_BASIC_GEN PARAMS: VDD=1 VSS=0 VTHRESH=0.5 DELAY=10n
X_min_timer_min_on_U823         min_timer_min_on_N16772328 MIN_TIMER_INB
+  min_timer_min_on_N16772126 AND2_BASIC_GEN PARAMS: VDD=1 VSS=0 VTHRESH=500E-3
X_min_timer_min_on_S1    MODE_OUT 0 min_timer_min_on_N16772126
+  min_timer_min_on_INDELAYED1 Minimum_ON_time_min_timer_min_on_S1 
D_min_timer_min_on_D10         min_timer_min_on_N16772126
+  min_timer_min_on_INDELAYED1 D_D111 
C_min_timer_min_on_C172         0 min_timer_min_on_INDELAYED1  1n  
X_min_timer_min_on_U825         min_timer_min_on_N16772126
+  min_timer_min_on_INDELAYED1 min_timer_PULSE_BB_TRAN OR2_BASIC_GEN PARAMS:
+  VDD=1 VSS=0 VTHRESH=500E-3
X_min_timer_U7         PWM_COMPARATOR_OUT min_timer_PULSE_BB_TRAN
+  min_timer_PULSELTBB_TRAN AND2_BASIC_GEN PARAMS: VDD=1 VSS=0 VTHRESH=500E-3
X_min_timer_U696         min_timer_RES PWM_COMPARATOR_OUTB min_timer_N16696309
+  AND2_BASIC_GEN PARAMS: VDD=1 VSS=0 VTHRESH=500E-3
X_min_timer_U660         min_timer_N16671724 N16671835 CLK_RESET
+  min_timer_N16671780 EN min_timer_SET dffsbrb_nodelay PARAMS:  VDD=1 VSS=0
+  VTHRESH=0.5
X_min_timer_U834         min_timer_N16671724 min_timer_N16671739
+  BUF_DELAY_BASIC_GEN PARAMS: VDD=1 VSS=0 VTHRESH=0.5 DELAY=150n
R_min_timer_R2         min_timer_N16808035 min_timer_N16808041  1.7172k TC=0,0 
X_min_timer_U826         min_timer_N16808035 min_timer_N16808041
+  min_timer_OUTPUT1P2US NOR2_BASIC_GEN PARAMS: VDD=1 VSS=0 VTHRESH=500E-3
X_min_timer_U692         min_timer_N16671724 min_timer_N16744010 MODE_IN
+  AND2_BASIC_GEN PARAMS: VDD=1 VSS=0 VTHRESH=500E-3
X_min_timer_U822         min_timer_INPUT1P2US min_timer_N16808082
+  INV_DELAY_BASIC_GEN PARAMS: VDD=1 VSS=0 VTHRESH=0.5 DELAY=10n
X_min_timer_U661         min_timer_N16671739 BUCK_BOOST_MODE
+  min_timer_N16671780 XOR2_BASIC_GEN PARAMS: VDD=1 VSS=0 VTHRESH=500E-3
X_min_timer_U823         min_timer_N16808082 min_timer_INPUT1P2US
+  min_timer_N16808035 AND2_BASIC_GEN PARAMS: VDD=1 VSS=0 VTHRESH=500E-3
E_EA_SS_CCLOOP_ABM178         EA_SS_CCLOOP_N16151836 0 VALUE {
+  MIN((V(SS)-10m),0.8)    }
D_EA_SS_CCLOOP_D65         0 COMP D_D1 
X_EA_SS_CCLOOP_U3         EN EA_SS_CCLOOP_N16783983 INV_BASIC_GEN PARAMS: VDD=1
+  VSS=0 VTHRESH=500E-3
D_EA_SS_CCLOOP_D63         0 SS D_D11 
C_EA_SS_CCLOOP_C14         0 BUCK_SS  1n  
G_EA_SS_CCLOOP_ABMII1         EA_SS_CCLOOP_N16151810 SS VALUE { {IF(V(EN) >
+  0.5,5u,0)}    }
D_EA_SS_CCLOOP_D62         SS EA_SS_CCLOOP_N16151810 D_D11 
E_EA_SS_CCLOOP_ABM179         SS_COMPLETE 0 VALUE { IF(V(SS) >1.2, 1,0)    }
E_EA_SS_CCLOOP_E9         EA_SS_CCLOOP_N16738178 0 ISNS_P ISNS_N 1
D_EA_SS_CCLOOP_D64         COMP EA_SS_CCLOOP_N16737187 D_D1 
G_EA_SS_CCLOOP_ABMII2         SS 0 VALUE { IF(V(EA_SS_CCLOOP_N16738178)>45m,
+  1m*(V(EA_SS_CCLOOP_N16738178)-45m),0)    }
X_EA_SS_CCLOOP_U2         TOFF EA_SS_CCLOOP_N16783983 EA_SS_CCLOOP_N16783515
+  OR2_BASIC_GEN PARAMS: VDD=1 VSS=0 VTHRESH=500E-3
G_EA_SS_CCLOOP_ABM2I1         EA_SS_CCLOOP_N16737187 COMP VALUE { 
+ {LIMIT((V(BUCK_SS) - V(FB))*1.1m, -300u,300u)}    }
R_EA_SS_CCLOOP_R294         0 COMP  20Meg  
V_EA_SS_CCLOOP_V71         EA_SS_CCLOOP_N16737187 0 3.3
C_EA_SS_CCLOOP_C172         0 COMP  87.5p  
V_EA_SS_CCLOOP_V70         EA_SS_CCLOOP_N16151810 0 1.22
X_EA_SS_CCLOOP_S1    EA_SS_CCLOOP_N16783515 0 SS 0
+  EA_softStart_CCloop_mod1_EA_SS_CCLOOP_S1 
R_EA_SS_CCLOOP_R14         EA_SS_CCLOOP_N16151836 BUCK_SS  1  
X_PGOOD_OVP_U3         PGOOD_OVP_N16769754 PGOOD_OVP_N16769766
+  PGOOD_OVP_NO_PGOOD OR2_BASIC_GEN PARAMS: VDD=1 VSS=0 VTHRESH=500E-3
X_PGOOD_OVP_U1         FB PGOOD_OVP_N00112 PGOOD_OVP_N16769754 COMP_BASIC_GEN
+  PARAMS: VDD=1 VSS=0 VTHRESH=0.5
V_PGOOD_OVP_V4         PGOOD_OVP_N16770999 0 20m
X_PGOOD_OVP_U2         PGOOD_OVP_N00126 FB PGOOD_OVP_N16769766 COMP_BASIC_GEN
+  PARAMS: VDD=1 VSS=0 VTHRESH=0.5
X_PGOOD_OVP_S3    PGOOD_OVP_NO_PGOOD 0 PGOOD 0 Power_Good_PGOOD_OVP_S3 
V_PGOOD_OVP_V1         PGOOD_OVP_N00112 0 0.88
V_PGOOD_OVP_V2         PGOOD_OVP_N00126 0 0.72
X_PGOOD_OVP_U5         FB PGOOD_OVP_N16769927 PGOOD_OVP_N16770999 OVP
+  COMPHYS_BASIC_GEN PARAMS: VDD=1 VSS=0 VTHRESH=0.5
V_PGOOD_OVP_V3         PGOOD_OVP_N16769927 0 0.86